Version 4
SHEET 1 1096 680
WIRE -480 112 -656 112
WIRE -384 112 -480 112
WIRE -208 112 -208 96
WIRE -208 112 -288 112
WIRE 32 112 -208 112
WIRE 80 112 32 112
WIRE 128 112 80 112
WIRE 272 112 128 112
WIRE -656 240 -656 112
WIRE -304 272 -304 160
WIRE -288 272 -304 272
WIRE 32 304 32 112
WIRE 128 304 128 112
WIRE -656 560 -656 320
WIRE -288 560 -288 272
WIRE -288 560 -656 560
WIRE -240 560 -288 560
WIRE 32 560 32 368
WIRE 32 560 -240 560
WIRE 128 560 128 384
WIRE 128 560 32 560
WIRE -240 576 -240 560
FLAG -480 112 in
FLAG 80 112 out
FLAG -240 576 0
SYMBOL voltage -656 224 R0
WINDOW 123 24 124 Left 2
WINDOW 39 0 0 Left 2
WINDOW 3 24 44 Left 2
SYMATTR Value PULSE(0 -4.8 0 10u 10u 100u)
SYMATTR InstName V1
SYMBOL res 112 288 R0
SYMATTR InstName R2
SYMATTR Value 10k
SYMBOL cap 16 304 R0
SYMATTR InstName C1
SYMATTR Value 1n
SYMBOL AutoGenerated\\ntr2101pt1 -384 160 R270
SYMATTR InstName U1
TEXT -48 616 Left 2 !.tran 0 300u 0
